[General]
network = ntuattack.simulations.delay.SimpleDelayAttack
description = Mô tả tấn công hủy là trì hoãn việc phát gói dữ liệu
sim-time-limit = 150s
num-rngs = 3
**.mobility.rng-0 = 1
**.wlan[*].mac.rng-0 = 2

# channel physical parameters
**.wlan[*].typename = "AckingWirelessInterface"
**.wlan[*].bitrate = 2Mbps
**.wlan[*].mac.headerLength = 23B
**.wlan[*].radio.typename = "UnitDiskRadio"
**.wlan[*].radio.transmitter.headerLength = 96b
**.wlan[*].radio.transmitter.communicationRange = 200m
**.wlan[*].radio.transmitter.interferenceRange = 0m
**.wlan[*].radio.transmitter.detectionRange = 0m
**.wlan[*].radio.receiver.ignoreInterference = true

# lifecycle
**.hasStatus = true
*.visualizer.sceneVisualizer.descriptionFigure = "title"
*.visualizer.mediumVisualizer.displaySignals = true
*.visualizer.physicalLinkVisualizer.displayLinks = true
*.visualizer.dataLinkVisualizer.displayLinks = true
*.visualizer.networkRouteVisualizer.displayRoutes = true
# nic settings
#**.wlan[*].radio.displayCommunicationRange = true

*.sender.numApps = 1
*.sender.app[0].typename = "UdpBasicApp"
*.sender.app[0].destAddresses = "receiver"
*.sender.app[0].destPort = 1000
*.sender.app[0].sendInterval = 0.5s + uniform(-0.001s,0.001s)
*.sender.app[0].startTime = 0s
*.sender.app[0].messageLength = 512Byte
*.sender.app[0].packetName = "UDPdata"
*.receiver.numApps = 1
*.receiver.app[0].typename = "UdpSink"
*.receiver.app[0].localPort = 1000


