[General]
network = SimpleGrayhole
description = Tấn công lỗ xám với xác suất hủy gói UDP,ICMP 0.5, \n Chuyển hoàn toàn lưu lượng TCP  
sim-time-limit = 150s
num-rngs = 3
**.mobility.rng-0 = 1
**.wlan[*].mac.rng-0 = 2

# channel physical parameters
**.wlan[*].typename = "AckingWirelessInterface"
**.wlan[*].bitrate = 2Mbps
**.wlan[*].mac.headerLength = 23B
**.wlan[*].radio.typename = "UnitDiskRadio"
**.wlan[*].radio.transmitter.headerLength = 96b
*.host*.wlan[*].radio.transmitter.communicationRange = 180m
**.wlan[*].radio.transmitter.interferenceRange = 0m
**.wlan[*].radio.transmitter.detectionRange = 0m
**.wlan[*].radio.receiver.ignoreInterference = true

# lifecycle
**.hasStatus = true
*.visualizer.sceneVisualizer.descriptionFigure = "title"
#*.visualizer.mediumVisualizer.displaySignals = true
*.visualizer.physicalLinkVisualizer.displayLinks = true
#*.visualizer.dataLinkVisualizer.displayLinks = true
*.visualizer.networkRouteVisualizer.displayRoutes = true


# nic settings
*.sender.wlan[0].radio.transmitter.communicationRange = 180m
*.receiver.wlan[0].radio.transmitter.communicationRange = 180m
*.TelnetClient.wlan[0].radio.transmitter.communicationRange = 180m
*.TelnetServer.wlan[0].radio.transmitter.communicationRange = 180m
#*.sender.wlan[0].radio.displayCommunicationRange = true
#*.receiver.wlan[0].radio.displayCommunicationRange = true
#UPD app
*.sender.numApps = 1
*.sender.app[0].typename = "UdpBasicApp"
*.sender.app[0].destAddresses = "receiver"
*.sender.app[0].destPort = 1000
*.sender.app[0].sendInterval = 0.5s + uniform(-0.001s,0.001s)
*.sender.app[0].startTime = 0s
*.sender.app[0].messageLength = 512Byte
*.sender.app[0].packetName = "UDPdata"
*.receiver.numApps = 1
*.receiver.app[0].typename = "UdpSink"
*.receiver.app[0].localPort = 1000

# tcp apps
*.TelnetClient.numApps =1
*.TelnetClient.app[0].typename = "TelnetApp"
*.TelnetClient.app[0].localAddress = ""
*.TelnetClient.app[0].localPort = -1 
*.TelnetClient.app[0].connectAddress = "TelnetServer"
*.TelnetClient.app[0].connectPort = 1001
*.TelnetClient.app[0].startTime = 0s

*.TelnetServer.numApps =1
*.TelnetServer.app[0].typename = "TcpGenericServerApp"
*.TelnetServer.app[0].localPort = 1001
*.TelnetServer.app[0].replyDelay = 0s


*.TelnetClient.app[0].numCommands = int(exponential(10))
*.TelnetClient.app[0].commandLength = intWithUnit(exponential(10B))
*.TelnetClient.app[0].keyPressDelay = exponential(0.1s)
*.TelnetClient.app[0].commandOutputLength = intWithUnit(exponential(5B))
*.TelnetClient.app[0].thinkTime = truncnormal(1s,2s)
*.TelnetClient.app[0].idleInterval = truncnormal(36s,12s)
*.TelnetClient.app[0].reconnectInterval = 3s 
 

*.GrayHoler.wlan[0].radio.transmitter.communicationRange = 180m
